Circuit: * C:\Users\blanc\OneDrive - Universidad de Oviedo\ANTERIOR\Documentos\2 Curso\TEC\Condensador y gráfica.asc

Direct Newton iteration for .op point succeeded.

Date: Wed Sep 22 19:38:20 2021
Total elapsed time: 0.056 seconds.

tnom = 27
temp = 27
method = modified trap
totiter = 2085
traniter = 2082
tranpoints = 1042
accept = 1042
rejected = 0
matrix size = 3
fillins = 0
solver = Normal
Matrix Compiler1: 50 bytes object code size  0.1/0.1/[0.0]
Matrix Compiler2: 175 bytes object code size  0.1/0.1/[0.1]

